LTspice 24.0.12 for Windows
Circuit: * C:\Users\TAK\Documents\GitHub\SimscapeModel\S3_VMU\Circuit Model.asc
Start Time: Sat Oct 12 15:40:15 2024
solver = Normal
Maximum thread count: 32
tnom = 27
temp = 27
method = modified trap
Direct Newton iteration for .op point succeeded.
Total elapsed time: 35.278 seconds.

